378
 generated by VMD
  H         15.888000       17.014000       16.940001
  C         16.818001       16.438999       17.024000
  H         16.891001       15.608000       16.349001
  H         17.000000       16.113001       18.040001
  C         18.018999       17.377001       16.641001
  O         18.909000       16.915001       15.965000
  N         18.070000       18.634001       17.082001
  D         17.354000       18.823000       17.789000
  C         18.923000       19.638000       16.558001
  H         18.650999       20.513000       17.083000
  H         19.962000       19.320999       16.634001
  H         18.782000       19.764000       15.561000
  O         18.601000       14.578000       14.040000
  D         19.158001       15.070000       13.449000
  D         18.679001       15.050000       14.895000
  O         22.153999       17.695999       17.822001
  D         21.864000       17.054001       17.125999
  D         22.099001       17.000000       18.542000
  O         13.878000       16.972000       22.996000
  D         14.799000       17.059000       23.312000
  D         13.771000       17.613001       22.282000
  O         14.253000       17.250000       14.803000
  D         14.321000       16.583000       15.574000
  D         13.363000       17.052999       14.497000
  O         24.948000       17.968000       13.474000
  D         24.569000       18.184000       14.350000
  D         25.302999       18.889999       13.257000
  O         18.111000       16.694000       10.284000
  D         18.289000       15.947000        9.694000
  D         18.864000       16.665001       10.893000
  O         17.979000       19.107000       24.674000
  D         17.589001       18.257999       24.368000
  D         17.211000       19.573999       25.038000
  O         27.448000       16.881001       12.807000
  D         27.146000       16.754999       11.846000
  D         26.579000       17.173000       13.169000
  O         16.770000       23.087999       13.273000
  D         16.933001       22.125999       13.224000
  D         17.181999       23.336000       14.116000
  O         14.424000       12.268000       11.841000
  D         15.222000       12.872000       11.879000
  D         13.816000       12.942000       12.344000
  O         18.069000       23.038000       15.674000
  D         17.316000       22.789000       16.228001
  D         18.787001       22.499001       15.960000
  O         25.702000       19.108000       19.473000
  D         25.673000       18.263000       19.024000
  D         26.195999       19.645000       18.794001
  O         15.275000       15.833000        9.882000
  D         15.882000       16.320999        9.368000
  D         15.208000       16.315001       10.753000
  O          9.973000       14.718000       13.589000
  D          9.733000       14.920000       14.489000
  D          9.492000       15.324000       13.038000
  O         21.922001       11.317000       15.826000
  D         22.572001       10.658000       16.264999
  D         21.464001       11.521000       16.677000
  O         16.575001       17.035999       23.421000
  D         17.115000       16.236000       23.546000
  D         16.745001       17.215000       22.466999
  O         12.636000       13.801000       13.405000
  D         11.643000       13.808000       13.570000
  D         12.679000       14.681000       12.982000
  O         21.341000       11.552000       23.048000
  D         20.705999       11.278000       23.771000
  D         21.834000       10.655000       23.028999
  O         22.368999       20.253000       18.827999
  D         22.443001       20.822001       17.996000
  D         22.205000       19.424999       18.322001
  O         11.299000       22.207001       15.135000
  D         12.155000       22.052000       14.707000
  D         11.039000       21.315001       15.393000
  O         13.786000       16.771000       19.235001
  D         13.047000       17.454000       19.114000
  D         14.558000       17.334999       19.056999
  O         14.564000       13.952000       15.140000
  D         13.781000       13.826000       14.521000
  D         14.082000       14.452000       15.864000
  O         20.153000       11.737000       20.719000
  D         19.191999       11.750000       20.806999
  D         20.431000       11.846000       21.632000
  O         15.441000        8.312000       16.045000
  D         14.677000        7.720000       15.842000
  D         15.194000        8.968000       15.336000
  O         12.216000       16.150000       12.005000
  D         11.976000       15.468000       11.326000
  D         12.459000       16.862000       11.343000
  O         16.514000        8.726000       18.496000
  D         17.417000        8.886000       18.117001
  D         15.999000        8.531000       17.690001
  O         23.254000       13.683000       18.576000
  D         22.327000       13.406000       18.403999
  D         23.825001       13.107000       18.058001
  O         22.705000       14.087000       22.952000
  D         23.434999       13.813000       22.339001
  D         22.249001       13.231000       23.091000
  O         13.589000       23.222000       13.742000
  D         12.840000       23.867001       13.760000
  D         14.190000       23.657000       14.396000
  O         21.219000       16.562000       23.504000
  D         20.784000       16.539000       22.636999
  D         21.809000       15.790000       23.465000
  O         27.334000       14.536000       19.679001
  D         27.299999       13.553000       19.853001
  D         28.129000       14.594000       19.177999
  O         16.122000       17.424000        7.410000
  D         17.004000       17.825001        7.530000
  D         15.530000       18.204000        7.305000
  O         26.374001       18.117001       16.716000
  D         26.302000       17.361000       17.360001
  D         27.337999       18.070000       16.551001
  O         13.201000       14.146000       20.063999
  D         13.840000       14.355000       20.787001
  D         13.175000       15.075000       19.653000
  O         25.337999       20.635000       12.807000
  D         24.570999       21.155001       13.264000
  D         25.184000       20.990000       11.924000
  O         19.225000       17.614000        6.666000
  D         19.576000       16.848000        7.204000
  D         19.230000       17.164000        5.769000
  O         26.452000       16.278999       10.520000
  D         26.072001       15.471000       10.125000
  D         25.889000       16.958000       10.064000
  O         16.233999       22.881001       22.730000
  D         16.125999       22.715000       23.670000
  D         16.610001       23.739000       22.693001
  O         22.166000       18.295000       10.056000
  D         21.879999       18.945000       10.721000
  D         21.860001       17.492001       10.674000
  O         21.184999       19.969999       12.210000
  D         20.677999       20.733000       12.564000
  D         21.061001       19.301001       12.885000
  O         22.031000       21.299999       23.733000
  D         22.202999       20.320000       23.809999
  D         22.579000       21.398001       22.902000
  O         12.875000       17.983000        9.765000
  D         12.456000       17.525999        9.004000
  D         13.573000       18.447001        9.348000
  O         19.539000       11.076000       11.994000
  D         19.289000       12.022000       11.902000
  D         19.257000       10.784000       12.880000
  O         16.958000       13.033000       15.620000
  D         16.191000       13.500000       15.705000
  D         17.562000       13.522000       15.005000
  O         21.738001       24.818001       19.360001
  D         22.002001       24.607000       20.301001
  D         22.587999       24.598000       18.931999
  O         21.572001        8.652000       13.472000
  D         20.697001        8.988000       13.845000
  D         21.600000        9.125000       12.620000
  O         18.948999        9.516000       14.437000
  D         18.187000       10.188000       14.586000
  D         19.129000        9.323000       15.386000
  O         19.360001        8.506000       17.167000
  D         19.681999        8.922000       17.993000
  D         19.892000        7.628000       17.219999
  O         19.607000       16.440001       20.684000
  D         19.195000       15.535000       20.615000
  D         20.577000       16.169001       20.492001
  O         22.893000       21.372999       16.224001
  D         23.316999       20.518999       15.824000
  D         22.754000       21.871000       15.433000
  O         25.400000       11.278000       14.605000
  D         25.987000       10.493000       14.534000
  D         25.320000       11.454000       13.616000
  O         19.079000       14.768000        8.362000
  D         19.804001       14.151000        8.433000
  D         18.280001       14.181000        8.375000
  O         13.982000       10.448000       15.479000
  D         13.591000       10.611000       14.621000
  D         13.611000       11.200000       15.991000
  O         22.169001       15.974000       19.992001
  D         22.987000       16.167000       20.459000
  D         22.499001       15.271000       19.341999
  O         14.200000       21.025999       17.000000
  D         13.322000       21.166000       17.444000
  D         14.608000       20.451000       17.635000
  O         11.896000       18.520000       18.721001
  D         11.210000       18.431000       19.395000
  D         12.242000       19.379999       19.044001
  O         17.198999       20.568001       13.201000
  D         17.709999       19.736000       13.293000
  D         16.398001       20.287001       13.756000
  O         17.306999       12.052000       21.379999
  D         16.684999       11.519000       20.851999
  D         17.282000       11.684000       22.275999
  O         23.620001       22.466999       13.824000
  D         24.247999       23.156000       13.691000
  D         22.771000       22.905001       13.690000
  O         20.507999        9.187000       19.889000
  D         20.190001        8.628000       20.615000
  D         20.719000       10.059000       20.322001
  O         13.321000       12.032000       18.198999
  D         13.516000       12.778000       18.815001
  D         12.360000       12.069000       18.225000
  O         23.881001       23.920000       17.444000
  D         23.513000       23.135000       17.093000
  D         23.760000       24.573000       16.712999
  O         23.011999       16.287001       12.439000
  D         23.516001       15.443000       12.298000
  D         23.781000       16.837999       12.749000
  O         25.650000       16.542999       18.746000
  D         24.954000       16.513000       19.343000
  D         26.243999       15.788000       19.114000
  O         16.249001       14.111000       12.419000
  D         17.134001       14.168000       12.837000
  D         16.158001       15.078000       12.196000
  O         23.135000       13.619000       14.768000
  D         22.826000       12.767000       14.989000
  D         23.768000       13.809000       15.493000
  O         19.573000       22.618000       22.938000
  D         20.062000       21.969000       23.400000
  D         19.546000       23.431000       23.518000
  O         15.662000       23.848000       10.757000
  D         15.955000       22.934999       10.447000
  D         15.912000       23.653000       11.717000
  O         13.327000       15.399000       16.961000
  D         12.344000       15.421000       17.056999
  D         13.650000       15.644000       17.837999
  O         24.514999       21.270000       10.395000
  D         24.889999       21.504999        9.515000
  D         23.589001       21.068001       10.109000
  O         18.049999       18.066999       13.592000
  D         18.792999       18.042999       13.015000
  D         18.364000       17.725000       14.438000
  O         24.924999       13.392000       21.490000
  D         24.790001       12.471000       21.853001
  D         24.973000       13.186000       20.544001
  O         18.270000       14.220000       20.202000
  D         17.797001       13.483000       20.719000
  D         18.315001       13.677000       19.351999
  O         18.093000       12.310000       18.216999
  D         17.306000       11.950000       18.743000
  D         17.605000       12.586000       17.402000
  O         11.403000       19.195000       11.666000
  D         12.139000       19.657000       12.122000
  D         11.918000       18.684999       11.053000
  O         13.348000       20.872000       12.712000
  D         14.052000       20.490999       13.325000
  D         13.508000       21.834000       13.050000
  O         16.885000       16.812000       20.917000
  D         17.496000       16.030001       20.735001
  D         17.385000       17.474001       20.323000
  O         23.577999        9.270000       16.934999
  D         24.365000        9.824000       16.764000
  D         23.815001        8.489000       16.410000
  O         16.840000       19.160000       10.314000
  D         16.563000       19.065001       11.251000
  D         17.278999       18.297001       10.182000
  O         15.558000       17.120001       12.424000
  D         14.930000       17.259001       13.128000
  D         16.452000       17.253000       12.788000
  O         16.580000        9.395000       11.538000
  D         15.801000        8.899000       11.908000
  D         16.621000       10.164000       12.126000
  O         15.418000       19.129999       18.936001
  D         16.285999       19.386000       19.289000
  D         14.931000       19.059999       19.799000
  O         17.594000       21.559000       20.625999
  D         16.848000       21.753000       21.238001
  D         18.337000       22.076000       21.065001
  O         16.430000       10.649000       14.545000
  D         16.681000       11.534000       14.946000
  D         15.530000       10.509000       15.101000
  O         25.518000       12.014000       17.277000
  D         26.340000       12.556000       17.305000
  D         25.617001       11.702000       16.313999
  O         20.284000       15.636000       12.167000
  D         21.201000       15.663000       12.497000
  D         20.466000       15.058000       11.352000
  O         20.437000       22.375000       18.237000
  D         20.702999       21.520000       18.591999
  D         20.753000       22.980000       18.884001
  O         12.746000       20.969999       19.724001
  D         11.899000       21.445999       19.879999
  D         13.363000       21.732000       19.860001
  O         21.437000       13.893000       10.447000
  D         22.247000       13.663000       10.986000
  D         21.662001       13.535000        9.576000
  O         17.094000       21.783001        9.529000
  D         17.844999       21.627001        8.876000
  D         16.809999       20.848000        9.649000
  O         24.420000       16.142000       21.323000
  D         24.702999       15.239000       21.687000
  D         24.728001       16.728001       22.027000
  O         21.170000       18.042000       14.102000
  D         20.773001       17.799000       14.946000
  D         21.604000       17.212999       13.867000
  O         18.774000       23.645000       10.722000
  D         19.069000       23.104000       11.481000
  D         18.344999       22.892000       10.229000
  O         14.358000       23.464001       20.691000
  D         15.168000       23.725000       21.132000
  D         14.039000       24.297001       20.316999
  O         19.509001       21.952999       12.873000
  D         18.629999       21.552000       13.086000
  D         19.715000       22.499001       13.665000
  O         10.352000       15.269000       17.663000
  D          9.894000       15.915000       18.298000
  D          9.989000       15.692000       16.819000
  O         14.967000       13.817000        8.308000
  D         14.386000       14.370000        7.658000
  D         15.226000       14.584000        8.918000
  O         21.954000       15.662000       16.120001
  D         22.007000       14.896000       15.479000
  D         22.846001       15.679000       16.480000
  O         15.738000       11.331000       19.354000
  D         15.041000       11.711000       18.754999
  D         15.657000       10.434000       19.243999
  O         23.933001       18.804001       15.992000
  D         23.566000       18.256001       16.735001
  D         24.882000       18.757000       16.260000
  O         20.752001       12.195000       18.288000
  D         19.809000       12.234000       18.055000
  D         20.580000       12.018000       19.309999
  O         15.021000       14.726000       21.749001
  D         15.935000       14.738000       21.927000
  D         14.712000       15.665000       21.889999
  O         23.865999       19.961000       21.254000
  D         24.738001       20.025000       20.660000
  D         23.264999       19.827999       20.493999
  O         17.306999       12.552000        8.358000
  D         16.760000       11.738000        8.516000
  D         16.591999       13.071000        7.923000
  O         24.921000       15.031000       16.339001
  D         25.114000       15.393000       17.240000
  D         25.716999       14.464000       16.257999
  O         27.587000       13.772000       16.886999
  D         27.990999       13.896000       16.006001
  D         28.403999       13.667000       17.434999
  O         21.827000       21.534000        9.514000
  D         21.247000       20.865999        9.035000
  D         21.775000       21.215000       10.401000
  O         23.480000       13.553000       12.193000
  D         23.346001       13.576000       13.190000
  D         24.277000       13.032000       12.165000
  O         17.924999       14.670000       23.572001
  D         18.393999       13.982000       23.122999
  D         18.172001       14.392000       24.524000
  O         22.892000       18.798000       23.615999
  D         22.333000       17.976999       23.493999
  D         22.995001       19.086000       22.723000
  O         24.815001       17.908001        9.334000
  D         24.004000       18.174000        9.761000
  D         24.618999       18.042000        8.396000
  O         14.668000       19.834999       21.499001
  D         13.889000       20.285000       21.155001
  D         15.015000       20.464001       22.101000
  O         15.344000       23.698999       16.485001
  D         14.744000       22.907000       16.617001
  D         15.843000       23.639999       17.356001
  O         13.737000       20.937000        9.353000
  D         13.387000       21.870001        9.381000
  D         13.990000       20.937000       10.336000
  O         20.782000       19.395000        8.092000
  D         21.497999       18.767000        8.345000
  D         20.148001       18.773001        7.682000
  O         11.447000       17.219999       14.571000
  D         11.431000       16.768999       13.743000
  D         10.588000       16.983999       14.953000
  O         15.086000       19.775999       14.809000
  D         14.874000       20.142000       15.707000
  D         14.909000       18.804001       14.970000
  O         25.693001       11.840000       11.975000
  D         25.525999       11.379000       11.179000
  D         26.610001       12.094000       11.868000
  O         18.330999       18.847000       19.754000
  D         18.395000       19.735001       20.163000
  D         19.063999       18.353001       20.062000
  O         11.319000       19.486000       16.049000
  D         11.350000       18.687000       15.500000
  D         11.716000       19.105000       16.933001
  O         16.823999       23.481001       18.683001
  D         17.334000       22.945000       19.295000
  D         16.655001       24.261999       19.191000
  O         20.822001       23.157000       15.276000
  D         20.764000       22.827000       16.222000
  D         20.806999       24.114000       15.419000
