378
 generated by VMD
  H         18.981001       20.323000       17.922001
  C         19.056999       19.511000       17.191000
  H         19.995001       19.063999       17.471001
  H         19.040001       19.975000       16.247999
  C         17.867001       18.593000       17.305000
  O         16.903999       18.966000       17.986000
  N         17.909000       17.416000       16.558001
  D         18.847000       17.355000       16.069000
  C         16.903999       16.406000       16.316000
  H         16.969999       15.698000       17.094000
  H         15.919000       16.958000       16.304001
  H         17.032000       16.051001       15.349000
  O         18.024000       18.896999       11.824000
  D         18.757999       19.028999       12.499000
  D         17.697001       18.021999       12.113000
  O         14.110000       16.912001       22.837999
  D         15.098000       17.030001       22.806999
  D         14.133000       16.285000       23.688999
  O          9.394000       21.475000       20.936001
  D          8.640000       22.030001       21.018000
  D          9.484000       21.136000       21.865999
  O         15.742000       26.638000       22.999001
  D         15.076000       26.330999       22.389000
  D         16.118000       25.844999       23.332001
  O         12.248000       18.959999        9.750000
  D         12.171000       19.291000       10.678000
  D         11.830000       18.129999        9.807000
  O         19.407000       14.896000       19.330999
  D         19.757000       15.783000       19.722000
  D         18.468000       15.042000       19.618000
  O         16.363001       23.583000       20.702999
  D         16.235001       22.924000       20.011999
  D         15.654000       24.268999       20.521000
  O         25.365999       19.353001       16.625999
  D         24.739000       20.052999       16.521000
  D         25.059000       19.037001       17.511999
  O         12.954000       19.966000       25.209999
  D         12.380000       19.653000       25.996000
  D         13.202000       20.833000       25.622000
  O         21.594000       16.403000       24.764999
  D         21.341999       15.545000       25.110001
  D         22.476000       16.499001       25.170000
  O         23.816999       21.285999       22.281000
  D         24.603001       20.856001       22.716999
  D         23.379999       21.627001       23.066999
  O         15.522000       20.662001       14.813000
  D         15.550000       20.683001       15.780000
  D         16.288000       21.228001       14.523000
  O          9.748000       24.089001       18.686001
  D          8.846000       24.290001       18.344000
  D         10.149000       23.864000       17.805000
  O         12.226000       13.776000       22.478001
  D         11.716000       14.591000       22.497999
  D         12.066000       13.458000       21.561001
  O         18.398001       23.086000       18.232000
  D         18.458000       24.035000       18.497999
  D         18.513000       22.659000       19.091999
  O         11.647000       19.403000       12.420000
  D         11.265000       20.011000       13.000000
  D         10.855000       18.730000       12.373000
  O         14.003000       13.488000       11.892000
  D         14.103000       13.928000       12.773000
  D         14.927000       13.183000       11.788000
  O         15.782000       20.306000       20.358000
  D         14.905000       20.698000       20.486000
  D         15.926000       20.546000       19.393000
  O         11.492000       21.600000       16.584000
  D         12.295000       21.625000       17.045000
  D         10.898000       21.177000       17.280001
  O         12.601000       16.129999       20.653000
  D         13.081000       16.308001       21.495001
  D         13.339000       15.750000       20.066999
  O         19.455999       15.777000       13.570000
  D         20.180000       16.150999       14.091000
  D         19.298000       15.023000       14.258000
  O         18.132999       13.270000       17.538000
  D         18.475000       13.979000       18.153999
  D         17.209999       13.251000       17.843000
  O         18.676001       21.296000       25.792000
  D         19.207001       20.867001       25.118000
  D         19.079000       20.882000       26.601999
  O         21.554001       22.075001       15.657000
  D         20.783001       22.476999       15.991000
  D         21.458000       22.145000       14.689000
  O         13.509000       22.539000       13.833000
  D         12.587000       22.180000       13.761000
  D         14.014000       21.702000       13.930000
  O         15.196000       12.463000       18.330000
  D         14.357000       12.981000       18.146999
  D         15.084000       11.723000       17.747000
  O          7.898000       20.478001       17.422001
  D          8.735000       20.514999       17.860001
  D          7.268000       20.364000       18.188000
  O         20.070999       19.413000       13.358000
  D         20.683001       18.841999       13.880000
  D         20.646999       19.492001       12.538000
  O         19.247000       26.455999       16.409000
  D         19.492001       27.429001       16.370001
  D         19.004000       26.388000       17.358999
  O         15.582000       19.181999       25.406000
  D         15.624000       19.330999       24.459999
  D         14.643000       19.437000       25.615999
  O         13.742000       23.848000       16.190001
  D         12.862000       24.218000       16.357000
  D         13.658000       23.712000       15.224000
  O         18.275000       27.150000       21.027000
  D         17.804001       27.719000       20.400000
  D         18.271999       27.667000       21.827000
  O         21.954000       15.009000       12.868000
  D         20.965000       15.169000       12.795000
  D         22.032000       15.134000       13.894000
  O         14.501000       15.576000       18.780001
  D         14.661000       16.531000       18.523001
  D         15.274000       15.312000       19.285000
  O         17.721001       14.481000       11.852000
  D         16.948000       15.074000       11.956000
  D         18.365999       15.069000       12.317000
  O         14.090000       24.622999       12.301000
  D         14.004000       24.129000       11.413000
  D         13.887000       23.843000       12.898000
  O         21.358000       17.559999       14.824000
  D         21.839001       16.812000       15.222000
  D         22.004999       18.290001       14.867000
  O         14.443000       18.426001       13.189000
  D         14.809000       19.084999       13.834000
  D         13.553000       18.716999       13.072000
  O         24.663000       14.952000       20.485001
  D         25.542000       15.117000       20.087999
  D         24.655001       13.985000       20.556999
  O         19.719999       17.430000       20.063000
  D         18.930000       18.093000       20.063999
  D         19.796000       17.457001       21.049000
  O         18.382000       15.909000        9.323000
  D         19.326000       16.207001        9.466000
  D         18.247999       15.446000       10.181000
  O         19.406000       11.238000       13.947000
  D         19.926001       10.357000       14.126000
  D         19.832001       11.414000       13.022000
  O         11.639000       13.098000       20.039000
  D         11.052000       12.470000       19.608999
  D         12.142000       13.456000       19.350000
  O         16.235001       21.677999       11.801000
  D         16.951000       22.023001       12.405000
  D         16.410000       20.729000       11.888000
  O         16.267000       16.697001       12.285000
  D         15.848000       17.330999       12.836000
  D         15.601000       16.552999       11.614000
  O         14.297000       18.294001       18.365999
  D         15.143000       18.641001       18.749001
  D         13.653000       18.905001       18.808001
  O         11.017000       15.259000       16.486000
  D         10.319000       15.617000       17.094999
  D         10.728000       15.614000       15.627000
  O         19.316999       11.156000       18.690001
  D         18.794001       11.810000       18.256001
  D         18.617001       10.652000       19.166000
  O         22.521000       24.461000       23.135000
  D         22.280001       23.688999       23.639999
  D         23.256001       24.806000       23.681000
  O         18.037001       19.087000        9.236000
  D         18.070999       19.278999       10.208000
  D         17.275999       18.438999        9.294000
  O         15.169000       26.160000       18.973000
  D         15.715000       25.681999       18.353001
  D         15.043000       27.017000       18.514000
  O         16.326000       14.279000       24.368000
  D         16.941999       13.554000       24.417000
  D         16.462000       14.743000       25.219999
  O         15.225000       22.367001       23.725000
  D         14.515000       22.046000       24.341000
  D         14.757000       22.153000       22.874001
  O          9.380000       17.180000       17.653999
  D          8.400000       16.968000       17.577000
  D          9.452000       17.093000       18.629000
  O          8.380000       18.631001       21.858000
  D          9.327000       18.315001       21.849001
  D          8.446000       19.187000       22.641001
  O          9.983000       16.280001       20.202999
  D          9.800000       16.327000       21.160000
  D         11.001000       16.094000       20.339001
  O         16.363001       11.922000       14.386000
  D         15.931000       11.209000       14.927000
  D         17.233999       11.511000       14.251000
  O         22.653999       20.948000       19.917000
  D         22.438999       19.992001       20.066999
  D         22.855000       21.153999       20.839001
  O         22.957001       15.964000       18.302999
  D         23.823000       15.660000       18.094999
  D         22.618999       15.345000       18.938999
  O         20.292999       17.524000        9.845000
  D         19.583000       17.976999        9.394000
  D         20.576000       18.136999       10.535000
  O         22.405001       18.226999       19.992001
  D         21.509001       17.761999       20.052000
  D         22.788000       17.709999       19.292000
  O         16.980000       15.208000       20.462000
  D         16.907000       16.118999       20.822001
  D         16.770000       14.719000       21.252001
  O         14.877000       10.213000       16.268999
  D         15.361000        9.613000       16.827999
  D         14.072000        9.687000       16.062000
  O          9.840000       15.876000       22.819000
  D          9.935000       15.855000       23.827999
  D          9.018000       15.420000       22.669001
  O         19.855000       20.281000       23.413000
  D         18.927000       20.511000       23.231001
  D         20.332001       21.049000       23.153000
  O         21.702999       14.655000       15.605000
  D         20.708000       14.448000       15.571000
  D         21.868999       14.453000       16.563000
  O         23.535999       21.292000       17.167999
  D         22.844000       21.798000       16.631001
  D         23.153000       21.184000       18.052999
  O         11.488000       14.560000       12.118000
  D         11.948000       15.143000       12.754000
  D         12.160000       13.831000       12.030000
  O         22.056000       21.986000       24.625999
  D         22.103001       22.583000       25.415001
  D         22.056000       21.136000       25.033001
  O         12.100000       11.709000       15.224000
  D         13.070000       11.951000       15.268000
  D         11.964000       11.551000       16.239000
  O         19.406000       25.589001       19.087999
  D         20.330000       25.635000       18.969999
  D         19.087999       26.171000       19.721001
  O         22.952000       25.264999       20.358000
  D         22.907000       24.726999       21.159000
  D         22.782000       26.195000       20.705999
  O         24.077000       25.190001       18.063000
  D         23.528000       25.285999       18.870001
  D         23.629000       25.950001       17.599001
  O         17.801001       22.009001       14.251000
  D         18.709000       21.768000       13.907000
  D         18.136999       22.761999       14.834000
  O         21.628000       25.891001       14.590000
  D         21.072001       25.476999       15.298000
  D         21.530001       26.841000       14.898000
  O         16.368000       25.232000       16.563000
  D         15.413000       25.157000       16.497000
  D         16.561001       25.476999       15.604000
  O         17.167999       20.434000       22.924000
  D         16.482000       20.284000       22.285000
  D         16.837000       21.212000       23.444000
  O         20.601000       14.280000       22.330999
  D         21.252001       14.469000       21.628000
  D         20.325001       15.212000       22.547001
  O         12.547000       17.976000       16.000999
  D         13.167000       18.249001       16.643999
  D         11.854000       17.563999       16.476999
  O         14.364000       15.739000        9.972000
  D         13.601000       15.681000        9.327000
  D         14.226000       14.907000       10.437000
  O         13.460000       15.529000       25.069000
  D         12.566000       15.994000       24.934999
  D         13.277000       15.199000       25.982000
  O         19.856001       17.309999       22.938999
  D         19.922001       18.259001       23.183001
  D         20.493000       16.934000       23.576000
  O         10.399000       20.441000       18.655001
  D         10.951000       19.718000       19.045000
  D         10.082000       20.830000       19.518000
  O         19.277000       13.707000       15.173000
  D         18.709999       13.424000       15.962000
  D         19.379000       12.851000       14.685000
  O         25.069000       18.594000       19.257000
  D         24.195000       18.539000       19.683001
  D         25.462000       19.322001       19.757999
  O         13.640000       21.594999       21.184000
  D         13.013000       22.350000       21.030001
  D         13.012000       20.872999       21.361000
  O          9.260000       18.070999       12.854000
  D          8.796000       17.250999       13.096000
  D          9.109000       18.572001       13.624000
  O         17.895000       18.917000       20.889000
  D         17.895000       19.492001       21.671000
  D         17.139999       19.257999       20.414000
  O         19.270000       23.655001       15.861000
  D         19.320000       24.621000       15.900000
  D         19.077000       23.405001       16.770000
  O         18.194000       24.601999       22.528000
  D         18.389000       25.489000       22.238001
  D         17.552999       24.315001       21.797001
  O         12.526000       19.204000       22.476000
  D         13.046000       18.374001       22.674000
  D         12.391000       19.464001       23.427000
  O         13.393000       14.136000       16.898001
  D         12.441000       14.449000       16.761999
  D         13.689000       14.756000       17.547001
  O          9.266000       15.611000       14.294000
  D          8.377000       15.468000       14.636000
  D          9.442000       14.718000       13.910000
  O         17.101999       16.799000       22.848000
  D         18.027000       17.247000       22.906000
  D         17.152000       16.399000       23.750999
  O         21.436001       22.048000       12.931000
  D         22.236000       21.570999       12.583000
  D         21.393999       22.738001       12.262000
  O          8.821000       19.100000       15.289000
  D          8.310000       19.614000       15.971000
  D          9.290000       18.466000       15.857000
  O         21.844000       13.783000       19.791000
  D         20.886999       13.844000       19.707001
  D         22.068001       12.906000       20.056999
  O         16.547001       24.594000       24.615000
  D         17.299999       24.438000       23.944000
  D         16.051001       23.740000       24.370001
  O         11.906000       18.694000       19.910999
  D         12.016000       17.705999       19.961000
  D         11.869000       18.865000       20.879999
  O         23.257999       19.291000       14.477000
  D         23.531000       19.704000       13.634000
  D         23.141001       19.990999       15.101000
  O         16.181000       15.494000       26.679001
  D         15.875000       14.726000       27.191000
  D         15.506000       16.152000       26.950001
  O         23.514999       17.289000       11.364000
  D         22.989000       16.721001       11.973000
  D         24.215000       17.573999       12.020000
  O         10.524000       21.809000       13.539000
  D         10.898000       21.490000       14.378000
  D          9.793000       22.400000       13.898000
  O         11.414000       23.223000       20.549999
  D         10.966000       23.653000       19.819000
  D         10.656000       22.695999       20.917999
  O         14.872000       13.442000       22.201000
  D         15.221000       13.714000       23.099001
  D         13.948000       13.614000       22.319000
  O         16.893999       12.268000       20.774000
  D         16.337000       12.492000       21.594000
  D         16.171000       12.145000       20.167999
  O         16.396999       25.424000       13.837000
  D         15.576000       25.245001       13.308000
  D         16.875999       26.013000       13.255000
  O         15.046000       14.271000       14.291000
  D         14.878000       14.344000       15.263000
  D         15.642000       13.507000       14.297000
  O         13.449000       10.517000       19.863001
  D         14.318000       10.775000       19.558001
  D         13.612000        9.824000       20.525000
  O         19.368000       11.580000       21.785000
  D         20.082001       12.205000       21.853001
  D         18.802000       11.984000       21.124001
  O         13.887000       22.083000       26.409000
  D         13.577000       23.007999       26.388000
  D         14.167000       21.971001       27.295000
  O         13.690000       25.327999       21.252001
  D         13.015000       24.718000       20.962000
  D         13.844000       25.864000       20.473000
  O         18.910000       24.481001       12.835000
  D         19.513000       24.288000       13.540000
  D         18.084000       24.641001       13.278000
  O         17.834000       23.457001       10.339000
  D         17.136999       22.893000       10.755000
  D         18.462000       23.514999       11.106000
  O         12.557000       16.275000       13.877000
  D         13.493000       16.122000       14.026000
  D         12.377000       16.945000       14.544000
  O         21.455999       19.552999       11.164000
  D         22.406000       19.402000       11.228000
  D         21.420000       20.239000       10.385000
  O         24.143000       20.691000       12.245000
  D         24.430000       20.780001       11.297000
  D         24.686001       21.351999       12.678000
  O         10.767000       24.170000       16.250999
  D         10.909000       23.198000       16.096001
  D         10.177000       24.381001       15.487000
  O         13.992000       22.315001       10.728000
  D         13.834000       21.693001        9.958000
  D         14.903000       21.999001       10.992000
  O         15.798000       22.032000       18.035999
  D         16.711000       22.153999       17.652000
  D         15.246000       22.591000       17.525999
  O         18.902000       16.834000       26.580000
  D         18.195999       16.215000       26.249001
  D         18.268999       17.371000       27.113001
  O         17.738001       11.863000       24.009001
  D         17.254999       11.007000       23.941000
  D         17.930000       12.110000       23.063000
